# generated using pymatgen
data_Ba2CuH14(C3O8)2
_symmetry_space_group_name_H-M   'P 1'
_cell_length_a   6.92810000
_cell_length_b   7.12790000
_cell_length_c   8.81660000
_cell_angle_alpha   82.54600000
_cell_angle_beta   71.06000000
_cell_angle_gamma   82.00000000
_symmetry_Int_Tables_number   1
_chemical_formula_structural   Ba2CuH14(C3O8)2
_chemical_formula_sum   'Ba2 Cu1 H14 C6 O16'
_cell_volume   406.14311508
_cell_formula_units_Z   1
loop_
 _symmetry_equiv_pos_site_id
 _symmetry_equiv_pos_as_xyz
  1  'x, y, z'
loop_
 _atom_site_type_symbol
 _atom_site_label
 _atom_site_symmetry_multiplicity
 _atom_site_fract_x
 _atom_site_fract_y
 _atom_site_fract_z
 _atom_site_occupancy
  Ba  Ba0  1  0.09766000  0.73470000  0.34954000  1.0
  Ba  Ba1  1  0.90234000  0.26530000  0.65046000  1.0
  Cu  Cu2  1  0.00000000  0.00000000  0.00000000  1.0
  H  H3  1  0.59300000  0.88700000  0.08700000  1.0
  H  H4  1  0.40700000  0.11300000  0.91300000  1.0
  H  H5  1  0.01100000  0.35200000  0.10900000  1.0
  H  H6  1  0.98900000  0.64800000  0.89100000  1.0
  H  H7  1  0.49600000  0.38500000  0.11000000  1.0
  H  H8  1  0.50400000  0.61500000  0.89000000  1.0
  H  H9  1  0.33800000  0.04100000  0.44400000  1.0
  H  H10  1  0.66200000  0.95900000  0.55600000  1.0
  H  H11  1  0.26700000  0.93400000  0.58600000  1.0
  H  H12  1  0.73300000  0.06600000  0.41400000  1.0
  H  H13  1  0.38000000  0.35600000  0.43100000  1.0
  H  H14  1  0.62000000  0.64400000  0.56900000  1.0
  H  H15  1  0.33800000  0.43200000  0.57500000  1.0
  H  H16  1  0.66200000  0.56800000  0.42500000  1.0
  C  C17  1  0.65040000  0.80900000  0.16350000  1.0
  C  C18  1  0.34960000  0.19100000  0.83650000  1.0
  C  C19  1  0.04800000  0.27340000  0.19480000  1.0
  C  C20  1  0.95200000  0.72660000  0.80520000  1.0
  C  C21  1  0.59050000  0.28040000  0.12680000  1.0
  C  C22  1  0.40950000  0.71960000  0.87320000  1.0
  O  O23  1  0.83300000  0.81840000  0.16000000  1.0
  O  O24  1  0.16700000  0.18160000  0.84000000  1.0
  O  O25  1  0.53080000  0.70420000  0.26020000  1.0
  O  O26  1  0.46920000  0.29580000  0.73980000  1.0
  O  O27  1  0.06240000  0.34680000  0.30850000  1.0
  O  O28  1  0.93760000  0.65320000  0.69150000  1.0
  O  O29  1  0.06850000  0.09590000  0.17970000  1.0
  O  O30  1  0.93150000  0.90410000  0.82030000  1.0
  O  O31  1  0.73090000  0.23670000  0.00250000  1.0
  O  O32  1  0.26910000  0.76330000  0.99750000  1.0
  O  O33  1  0.56560000  0.20780000  0.26760000  1.0
  O  O34  1  0.43440000  0.79220000  0.73240000  1.0
  O  O35  1  0.23880000  0.98710000  0.50530000  1.0
  O  O36  1  0.76120000  0.01290000  0.49470000  1.0
  O  O37  1  0.28610000  0.42380000  0.50130000  1.0
  O  O38  1  0.71390000  0.57620000  0.49870000  1.0
