# generated using pymatgen
data_CuH24C24(N6Cl)2
_symmetry_space_group_name_H-M   'P 1'
_cell_length_a   7.66710000
_cell_length_b   8.52870000
_cell_length_c   21.32700000
_cell_angle_alpha   90.00000000
_cell_angle_beta   90.00000000
_cell_angle_gamma   106.55900000
_symmetry_Int_Tables_number   1
_chemical_formula_structural   CuH24C24(N6Cl)2
_chemical_formula_sum   'Cu2 H48 C48 N24 Cl4'
_cell_volume   1336.74318403
_cell_formula_units_Z   2
loop_
 _symmetry_equiv_pos_site_id
 _symmetry_equiv_pos_as_xyz
  1  'x, y, z'
loop_
 _atom_site_type_symbol
 _atom_site_label
 _atom_site_symmetry_multiplicity
 _atom_site_fract_x
 _atom_site_fract_y
 _atom_site_fract_z
 _atom_site_occupancy
  Cu  Cu0  1  0.50000000  0.50000000  0.50000000  1.0
  Cu  Cu1  1  0.50000000  0.00000000  0.00000000  1.0
  H  H2  1  0.81730000  0.37360000  0.43790000  1.0
  H  H3  1  0.18270000  0.12640000  0.93790000  1.0
  H  H4  1  0.18270000  0.62640000  0.56210000  1.0
  H  H5  1  0.81730000  0.87360000  0.06210000  1.0
  H  H6  1  0.37490000  0.40420000  0.35830000  1.0
  H  H7  1  0.62510000  0.09580000  0.85830000  1.0
  H  H8  1  0.62510000  0.59580000  0.64170000  1.0
  H  H9  1  0.37490000  0.90420000  0.14170000  1.0
  H  H10  1  0.75760000  0.09320000  0.31930000  1.0
  H  H11  1  0.24240000  0.40680000  0.81930000  1.0
  H  H12  1  0.24240000  0.90680000  0.68070000  1.0
  H  H13  1  0.75760000  0.59320000  0.18070000  1.0
  H  H14  1  0.92290000  0.20250000  0.35730000  1.0
  H  H15  1  0.07710000  0.29750000  0.85730000  1.0
  H  H16  1  0.07710000  0.79750000  0.64270000  1.0
  H  H17  1  0.92290000  0.70250000  0.14270000  1.0
  H  H18  1  0.74480000  0.12360000  0.20920000  1.0
  H  H19  1  0.25520000  0.37640000  0.70920000  1.0
  H  H20  1  0.25520000  0.87640000  0.79080000  1.0
  H  H21  1  0.74480000  0.62360000  0.29080000  1.0
  H  H22  1  0.88990000  0.22420000  0.11680000  1.0
  H  H23  1  0.11010000  0.27580000  0.61680000  1.0
  H  H24  1  0.11010000  0.77580000  0.88320000  1.0
  H  H25  1  0.88990000  0.72420000  0.38320000  1.0
  H  H26  1  0.26860000  0.55330000  0.21300000  1.0
  H  H27  1  0.73140000  0.94670000  0.71300000  1.0
  H  H28  1  0.73140000  0.44670000  0.78700000  1.0
  H  H29  1  0.26860000  0.05330000  0.28700000  1.0
  H  H30  1  0.12170000  0.45450000  0.30510000  1.0
  H  H31  1  0.87830000  0.04550000  0.80510000  1.0
  H  H32  1  0.87830000  0.54550000  0.69490000  1.0
  H  H33  1  0.12170000  0.95450000  0.19490000  1.0
  H  H34  1  0.09990000  0.44100000  0.06100000  1.0
  H  H35  1  0.90010000  0.05900000  0.56100000  1.0
  H  H36  1  0.90010000  0.55900000  0.93900000  1.0
  H  H37  1  0.09990000  0.94100000  0.43900000  1.0
  H  H38  1  0.24810000  0.57480000  0.09740000  1.0
  H  H39  1  0.75190000  0.92520000  0.59740000  1.0
  H  H40  1  0.75190000  0.42520000  0.90260000  1.0
  H  H41  1  0.24810000  0.07480000  0.40260000  1.0
  H  H42  1  0.18740000  0.14710000  0.05360000  1.0
  H  H43  1  0.81260000  0.35290000  0.55360000  1.0
  H  H44  1  0.81260000  0.85290000  0.94640000  1.0
  H  H45  1  0.18740000  0.64710000  0.44640000  1.0
  H  H46  1  0.70430000  0.36170000  0.05090000  1.0
  H  H47  1  0.29570000  0.13830000  0.55090000  1.0
  H  H48  1  0.29570000  0.63830000  0.94910000  1.0
  H  H49  1  0.70430000  0.86170000  0.44910000  1.0
  C  C50  1  0.72300000  0.36500000  0.40953000  1.0
  C  C51  1  0.27700000  0.13500000  0.90953000  1.0
  C  C52  1  0.27700000  0.63500000  0.59047000  1.0
  C  C53  1  0.72300000  0.86500000  0.09047000  1.0
  C  C54  1  0.48400000  0.37980000  0.36534000  1.0
  C  C55  1  0.51600000  0.12020000  0.86534000  1.0
  C  C56  1  0.51600000  0.62020000  0.63466000  1.0
  C  C57  1  0.48400000  0.87980000  0.13466000  1.0
  C  C58  1  0.82950000  0.20510000  0.32694000  1.0
  C  C59  1  0.17050000  0.29490000  0.82694000  1.0
  C  C60  1  0.17050000  0.79490000  0.67306000  1.0
  C  C61  1  0.82950000  0.70510000  0.17306000  1.0
  C  C62  1  0.91920000  0.27670000  0.26690000  1.0
  C  C63  1  0.08080000  0.22330000  0.76690000  1.0
  C  C64  1  0.08080000  0.72330000  0.73310000  1.0
  C  C65  1  0.91920000  0.77670000  0.23310000  1.0
  C  C66  1  0.85100000  0.21010000  0.21030000  1.0
  C  C67  1  0.14900000  0.28990000  0.71030000  1.0
  C  C68  1  0.14900000  0.78990000  0.78970000  1.0
  C  C69  1  0.85100000  0.71010000  0.28970000  1.0
  C  C70  1  0.93850000  0.27030000  0.15476000  1.0
  C  C71  1  0.06150000  0.22970000  0.65476000  1.0
  C  C72  1  0.06150000  0.72970000  0.84524000  1.0
  C  C73  1  0.93850000  0.77030000  0.34524000  1.0
  C  C74  1  0.09610000  0.39710000  0.15505000  1.0
  C  C75  1  0.90390000  0.10290000  0.65505000  1.0
  C  C76  1  0.90390000  0.60290000  0.84495000  1.0
  C  C77  1  0.09610000  0.89710000  0.34495000  1.0
  C  C78  1  0.16320000  0.46600000  0.21189000  1.0
  C  C79  1  0.83680000  0.03400000  0.71189000  1.0
  C  C80  1  0.83680000  0.53400000  0.78811000  1.0
  C  C81  1  0.16320000  0.96600000  0.28811000  1.0
  C  C82  1  0.07510000  0.40640000  0.26718000  1.0
  C  C83  1  0.92490000  0.09360000  0.76718000  1.0
  C  C84  1  0.92490000  0.59360000  0.73282000  1.0
  C  C85  1  0.07510000  0.90640000  0.23282000  1.0
  C  C86  1  0.19000000  0.45820000  0.09416000  1.0
  C  C87  1  0.81000000  0.04180000  0.59416000  1.0
  C  C88  1  0.81000000  0.54180000  0.90584000  1.0
  C  C89  1  0.19000000  0.95820000  0.40584000  1.0
  C  C90  1  0.30060000  0.22390000  0.05754000  1.0
  C  C91  1  0.69940000  0.27610000  0.55754000  1.0
  C  C92  1  0.69940000  0.77610000  0.94246000  1.0
  C  C93  1  0.30060000  0.72390000  0.44246000  1.0
  C  C94  1  0.57970000  0.34270000  0.05656000  1.0
  C  C95  1  0.42030000  0.15730000  0.55656000  1.0
  C  C96  1  0.42030000  0.65730000  0.94344000  1.0
  C  C97  1  0.57970000  0.84270000  0.44344000  1.0
  N  N98  1  0.58020000  0.41950000  0.41908000  1.0
  N  N99  1  0.41980000  0.08050000  0.91908000  1.0
  N  N100  1  0.41980000  0.58050000  0.58092000  1.0
  N  N101  1  0.58020000  0.91950000  0.08092000  1.0
  N  N102  1  0.55760000  0.30410000  0.32410000  1.0
  N  N103  1  0.44240000  0.19590000  0.82410000  1.0
  N  N104  1  0.44240000  0.69590000  0.67590000  1.0
  N  N105  1  0.55760000  0.80410000  0.17590000  1.0
  N  N106  1  0.71170000  0.29640000  0.35360000  1.0
  N  N107  1  0.28830000  0.20360000  0.85360000  1.0
  N  N108  1  0.28830000  0.70360000  0.64640000  1.0
  N  N109  1  0.71170000  0.79640000  0.14640000  1.0
  N  N110  1  0.32770000  0.37510000  0.07741000  1.0
  N  N111  1  0.67230000  0.12490000  0.57741000  1.0
  N  N112  1  0.67230000  0.62490000  0.92259000  1.0
  N  N113  1  0.32770000  0.87510000  0.42259000  1.0
  N  N114  1  0.45800000  0.19740000  0.04396000  1.0
  N  N115  1  0.54200000  0.30260000  0.54396000  1.0
  N  N116  1  0.54200000  0.80260000  0.95604000  1.0
  N  N117  1  0.45800000  0.69740000  0.45604000  1.0
  N  N118  1  0.50760000  0.45490000  0.07742000  1.0
  N  N119  1  0.49240000  0.04510000  0.57742000  1.0
  N  N120  1  0.49240000  0.54510000  0.92258000  1.0
  N  N121  1  0.50760000  0.95490000  0.42258000  1.0
  Cl  Cl122  1  0.86776000  0.67442000  0.52533000  1.0
  Cl  Cl123  1  0.13224000  0.82558000  0.02533000  1.0
  Cl  Cl124  1  0.13224000  0.32558000  0.47467000  1.0
  Cl  Cl125  1  0.86776000  0.17442000  0.97467000  1.0
