# generated using pymatgen
data_TiH6C5(NCl2)2
_symmetry_space_group_name_H-M   'P 1'
_cell_length_a   6.00900000
_cell_length_b   12.72900000
_cell_length_c   14.24300000
_cell_angle_alpha   90.00000000
_cell_angle_beta   90.00000000
_cell_angle_gamma   90.00000000
_symmetry_Int_Tables_number   1
_chemical_formula_structural   TiH6C5(NCl2)2
_chemical_formula_sum   'Ti4 H24 C20 N8 Cl16'
_cell_volume   1089.42657432
_cell_formula_units_Z   4
loop_
 _symmetry_equiv_pos_site_id
 _symmetry_equiv_pos_as_xyz
  1  'x, y, z'
loop_
 _atom_site_type_symbol
 _atom_site_label
 _atom_site_symmetry_multiplicity
 _atom_site_fract_x
 _atom_site_fract_y
 _atom_site_fract_z
 _atom_site_occupancy
  Ti  Ti0  1  0.15736000  0.47353000  0.25000000  1.0
  Ti  Ti1  1  0.84264000  0.52647000  0.75000000  1.0
  Ti  Ti2  1  0.15736000  0.02647000  0.75000000  1.0
  Ti  Ti3  1  0.84264000  0.97353000  0.25000000  1.0
  H  H4  1  0.75900000  0.70400000  0.08900000  1.0
  H  H5  1  0.24100000  0.29600000  0.58900000  1.0
  H  H6  1  0.75900000  0.79600000  0.91100000  1.0
  H  H7  1  0.24100000  0.20400000  0.41100000  1.0
  H  H8  1  0.24100000  0.29600000  0.91100000  1.0
  H  H9  1  0.75900000  0.70400000  0.41100000  1.0
  H  H10  1  0.24100000  0.20400000  0.08900000  1.0
  H  H11  1  0.75900000  0.79600000  0.58900000  1.0
  H  H12  1  0.71800000  0.63300000  0.00500000  1.0
  H  H13  1  0.28200000  0.36700000  0.50500000  1.0
  H  H14  1  0.71800000  0.86700000  0.99500000  1.0
  H  H15  1  0.28200000  0.13300000  0.49500000  1.0
  H  H16  1  0.28200000  0.36700000  0.99500000  1.0
  H  H17  1  0.71800000  0.63300000  0.49500000  1.0
  H  H18  1  0.28200000  0.13300000  0.00500000  1.0
  H  H19  1  0.71800000  0.86700000  0.50500000  1.0
  H  H20  1  0.40100000  0.72300000  0.96200000  1.0
  H  H21  1  0.59900000  0.27700000  0.46200000  1.0
  H  H22  1  0.40100000  0.77700000  0.03800000  1.0
  H  H23  1  0.59900000  0.22300000  0.53800000  1.0
  H  H24  1  0.59900000  0.27700000  0.03800000  1.0
  H  H25  1  0.40100000  0.72300000  0.53800000  1.0
  H  H26  1  0.59900000  0.22300000  0.96200000  1.0
  H  H27  1  0.40100000  0.77700000  0.46200000  1.0
  C  C28  1  0.50170000  0.60040000  0.10800000  1.0
  C  C29  1  0.49830000  0.39960000  0.60800000  1.0
  C  C30  1  0.50170000  0.89960000  0.89200000  1.0
  C  C31  1  0.49830000  0.10040000  0.39200000  1.0
  C  C32  1  0.49830000  0.39960000  0.89200000  1.0
  C  C33  1  0.50170000  0.60040000  0.39200000  1.0
  C  C34  1  0.49830000  0.10040000  0.10800000  1.0
  C  C35  1  0.50170000  0.89960000  0.60800000  1.0
  C  C36  1  0.63960000  0.67120000  0.05140000  1.0
  C  C37  1  0.36040000  0.32880000  0.55140000  1.0
  C  C38  1  0.63960000  0.82880000  0.94860000  1.0
  C  C39  1  0.36040000  0.17120000  0.44860000  1.0
  C  C40  1  0.36040000  0.32880000  0.94860000  1.0
  C  C41  1  0.63960000  0.67120000  0.44860000  1.0
  C  C42  1  0.36040000  0.17120000  0.05140000  1.0
  C  C43  1  0.63960000  0.82880000  0.55140000  1.0
  C  C44  1  0.49659000  0.75000000  0.00000000  1.0
  C  C45  1  0.50341000  0.25000000  0.50000000  1.0
  C  C46  1  0.50341000  0.25000000  0.00000000  1.0
  C  C47  1  0.49659000  0.75000000  0.50000000  1.0
  N  N48  1  0.38640000  0.54980000  0.15200000  1.0
  N  N49  1  0.61360000  0.45020000  0.65200000  1.0
  N  N50  1  0.38640000  0.95020000  0.84800000  1.0
  N  N51  1  0.61360000  0.04980000  0.34800000  1.0
  N  N52  1  0.61360000  0.45020000  0.84800000  1.0
  N  N53  1  0.38640000  0.54980000  0.34800000  1.0
  N  N54  1  0.61360000  0.04980000  0.15200000  1.0
  N  N55  1  0.38640000  0.95020000  0.65200000  1.0
  Cl  Cl56  1  0.41551000  0.34378000  0.25000000  1.0
  Cl  Cl57  1  0.58449000  0.65622000  0.75000000  1.0
  Cl  Cl58  1  0.41551000  0.15622000  0.75000000  1.0
  Cl  Cl59  1  0.58449000  0.84378000  0.25000000  1.0
  Cl  Cl60  1  0.96064000  0.41184000  0.12970000  1.0
  Cl  Cl61  1  0.03936000  0.58816000  0.62970000  1.0
  Cl  Cl62  1  0.96064000  0.08816000  0.87030000  1.0
  Cl  Cl63  1  0.03936000  0.91184000  0.37030000  1.0
  Cl  Cl64  1  0.03936000  0.58816000  0.87030000  1.0
  Cl  Cl65  1  0.96064000  0.41184000  0.37030000  1.0
  Cl  Cl66  1  0.03936000  0.91184000  0.12970000  1.0
  Cl  Cl67  1  0.96064000  0.08816000  0.62970000  1.0
  Cl  Cl68  1  0.99384000  0.63354000  0.25000000  1.0
  Cl  Cl69  1  0.00616000  0.36646000  0.75000000  1.0
  Cl  Cl70  1  0.99384000  0.86646000  0.75000000  1.0
  Cl  Cl71  1  0.00616000  0.13354000  0.25000000  1.0
