# generated using pymatgen
data_CdH15C13N11
_symmetry_space_group_name_H-M   'P 1'
_cell_length_a   9.55500000
_cell_length_b   9.84910000
_cell_length_c   9.88500000
_cell_angle_alpha   72.94800000
_cell_angle_beta   68.96200000
_cell_angle_gamma   86.71100000
_symmetry_Int_Tables_number   1
_chemical_formula_structural   CdH15C13N11
_chemical_formula_sum   'Cd2 H30 C26 N22'
_cell_volume   828.88452547
_cell_formula_units_Z   2
loop_
 _symmetry_equiv_pos_site_id
 _symmetry_equiv_pos_as_xyz
  1  'x, y, z'
loop_
 _atom_site_type_symbol
 _atom_site_label
 _atom_site_symmetry_multiplicity
 _atom_site_fract_x
 _atom_site_fract_y
 _atom_site_fract_z
 _atom_site_occupancy
  Cd  Cd0  1  0.18203000  0.11518000  0.68446000  1.0
  Cd  Cd1  1  0.81797000  0.88482000  0.31554000  1.0
  H  H2  1  0.17450000  0.08820000  0.08670000  1.0
  H  H3  1  0.82550000  0.91180000  0.91330000  1.0
  H  H4  1  0.25950000  0.09780000  0.27400000  1.0
  H  H5  1  0.74050000  0.90220000  0.72600000  1.0
  H  H6  1  0.50340000  0.17060000  0.21980000  1.0
  H  H7  1  0.49660000  0.82940000  0.78020000  1.0
  H  H8  1  0.67430000  0.23830000  0.97390000  1.0
  H  H9  1  0.32570000  0.76170000  0.02610000  1.0
  H  H10  1  0.81330000  0.22120000  0.68280000  1.0
  H  H11  1  0.18670000  0.77880000  0.31720000  1.0
  H  H12  1  0.76890000  0.24270000  0.54010000  1.0
  H  H13  1  0.23110000  0.75730000  0.45990000  1.0
  H  H14  1  0.84990000  0.44340000  0.75720000  1.0
  H  H15  1  0.15010000  0.55660000  0.24280000  1.0
  H  H16  1  0.86430000  0.69690000  0.63320000  1.0
  H  H17  1  0.13570000  0.30310000  0.36680000  1.0
  H  H18  1  0.63700000  0.40780000  0.41160000  1.0
  H  H19  1  0.36300000  0.59220000  0.58840000  1.0
  H  H20  1  0.64440000  0.57080000  0.32850000  1.0
  H  H21  1  0.35560000  0.42920000  0.67150000  1.0
  H  H22  1  0.87340000  0.38680000  0.25820000  1.0
  H  H23  1  0.12660000  0.61320000  0.74180000  1.0
  H  H24  1  0.89630000  0.55230000  0.18400000  1.0
  H  H25  1  0.10370000  0.44770000  0.81600000  1.0
  H  H26  1  0.83010000  0.41920000  0.03720000  1.0
  H  H27  1  0.16990000  0.58080000  0.96280000  1.0
  H  H28  1  0.73610000  0.55250000  0.05700000  1.0
  H  H29  1  0.26390000  0.44750000  0.94300000  1.0
  H  H30  1  0.66740000  0.39980000  0.15900000  1.0
  H  H31  1  0.33260000  0.60020000  0.84100000  1.0
  C  C32  1  0.37710000  0.15680000  0.91440000  1.0
  C  C33  1  0.62290000  0.84320000  0.08560000  1.0
  C  C34  1  0.27330000  0.11720000  0.06390000  1.0
  C  C35  1  0.72670000  0.88280000  0.93610000  1.0
  C  C36  1  0.32500000  0.12370000  0.17360000  1.0
  C  C37  1  0.67500000  0.87630000  0.82640000  1.0
  C  C38  1  0.47370000  0.16820000  0.14060000  1.0
  C  C39  1  0.52630000  0.83180000  0.85940000  1.0
  C  C40  1  0.57610000  0.20790000  0.99580000  1.0
  C  C41  1  0.42390000  0.79210000  0.00420000  1.0
  C  C42  1  0.52410000  0.20010000  0.88270000  1.0
  C  C43  1  0.47590000  0.79990000  0.11730000  1.0
  C  C44  1  0.74680000  0.27010000  0.63190000  1.0
  C  C45  1  0.25320000  0.72990000  0.36810000  1.0
  C  C46  1  0.82610000  0.48730000  0.67170000  1.0
  C  C47  1  0.17390000  0.51270000  0.32830000  1.0
  C  C48  1  0.83450000  0.62670000  0.60200000  1.0
  C  C49  1  0.16550000  0.37330000  0.39800000  1.0
  C  C50  1  0.75870000  0.52510000  0.47390000  1.0
  C  C51  1  0.24130000  0.47490000  0.52610000  1.0
  C  C52  1  0.70300000  0.49310000  0.36140000  1.0
  C  C53  1  0.29700000  0.50690000  0.63860000  1.0
  C  C54  1  0.82300000  0.47250000  0.22830000  1.0
  C  C55  1  0.17700000  0.52750000  0.77170000  1.0
  C  C56  1  0.75790000  0.45980000  0.10900000  1.0
  C  C57  1  0.24210000  0.54020000  0.89100000  1.0
  N  N58  1  0.79290000  0.65170000  0.47740000  1.0
  N  N59  1  0.20710000  0.34830000  0.52260000  1.0
  N  N60  1  0.77550000  0.42200000  0.59200000  1.0
  N  N61  1  0.22450000  0.57800000  0.40800000  1.0
  N  N62  1  0.59220000  0.22590000  0.73000000  1.0
  N  N63  1  0.40780000  0.77410000  0.27000000  1.0
  N  N64  1  0.49420000  0.20140000  0.66990000  1.0
  N  N65  1  0.50580000  0.79860000  0.33010000  1.0
  N  N66  1  0.36460000  0.16040000  0.77900000  1.0
  N  N67  1  0.63540000  0.83960000  0.22100000  1.0
  N  N68  1  0.97670000  0.19370000  0.86120000  1.0
  N  N69  1  0.02330000  0.80630000  0.13880000  1.0
  N  N70  1  0.93080000  0.14750000  0.99430000  1.0
  N  N71  1  0.06920000  0.85250000  0.00570000  1.0
  N  N72  1  0.88070000  0.10780000  0.12570000  1.0
  N  N73  1  0.11930000  0.89220000  0.87430000  1.0
  N  N74  1  0.37150000  0.01620000  0.52460000  1.0
  N  N75  1  0.62850000  0.98380000  0.47540000  1.0
  N  N76  1  0.50000000  0.00000000  0.50000000  1.0
  N  N77  1  0.01710000  0.05570000  0.58190000  1.0
  N  N78  1  0.98290000  0.94430000  0.41810000  1.0
  N  N79  1  0.00000000  0.00000000  0.50000000  1.0
