# generated using pymatgen
data_ZnH8C6(BrN)2
_symmetry_space_group_name_H-M   'P 1'
_cell_length_a   6.26980000
_cell_length_b   10.31670000
_cell_length_c   14.38420000
_cell_angle_alpha   90.00000000
_cell_angle_beta   90.00000000
_cell_angle_gamma   90.00000000
_symmetry_Int_Tables_number   1
_chemical_formula_structural   ZnH8C6(BrN)2
_chemical_formula_sum   'Zn4 H32 C24 Br8 N8'
_cell_volume   930.42249590
_cell_formula_units_Z   4
loop_
 _symmetry_equiv_pos_site_id
 _symmetry_equiv_pos_as_xyz
  1  'x, y, z'
loop_
 _atom_site_type_symbol
 _atom_site_label
 _atom_site_symmetry_multiplicity
 _atom_site_fract_x
 _atom_site_fract_y
 _atom_site_fract_z
 _atom_site_occupancy
  Zn  Zn0  1  0.37706000  0.25000000  0.49429000  1.0
  Zn  Zn1  1  0.12294000  0.75000000  0.99429000  1.0
  Zn  Zn2  1  0.62294000  0.75000000  0.50571000  1.0
  Zn  Zn3  1  0.87706000  0.25000000  0.00571000  1.0
  H  H4  1  0.08690000  0.38440000  0.37130000  1.0
  H  H5  1  0.41310000  0.61560000  0.87130000  1.0
  H  H6  1  0.91310000  0.88440000  0.62870000  1.0
  H  H7  1  0.58690000  0.11560000  0.12870000  1.0
  H  H8  1  0.91310000  0.61560000  0.62870000  1.0
  H  H9  1  0.58690000  0.38440000  0.12870000  1.0
  H  H10  1  0.08690000  0.11560000  0.37130000  1.0
  H  H11  1  0.41310000  0.88440000  0.87130000  1.0
  H  H12  1  0.17760000  0.51200000  0.71630000  1.0
  H  H13  1  0.32240000  0.48800000  0.21630000  1.0
  H  H14  1  0.82240000  0.01200000  0.28370000  1.0
  H  H15  1  0.67760000  0.98800000  0.78370000  1.0
  H  H16  1  0.82240000  0.48800000  0.28370000  1.0
  H  H17  1  0.67760000  0.51200000  0.78370000  1.0
  H  H18  1  0.17760000  0.98800000  0.71630000  1.0
  H  H19  1  0.32240000  0.01200000  0.21630000  1.0
  H  H20  1  0.35730000  0.42910000  0.66430000  1.0
  H  H21  1  0.14270000  0.57090000  0.16430000  1.0
  H  H22  1  0.64270000  0.92910000  0.33570000  1.0
  H  H23  1  0.85730000  0.07090000  0.83570000  1.0
  H  H24  1  0.64270000  0.57090000  0.33570000  1.0
  H  H25  1  0.85730000  0.42910000  0.83570000  1.0
  H  H26  1  0.35730000  0.07090000  0.66430000  1.0
  H  H27  1  0.14270000  0.92910000  0.16430000  1.0
  H  H28  1  0.14110000  0.36080000  0.69740000  1.0
  H  H29  1  0.35890000  0.63920000  0.19740000  1.0
  H  H30  1  0.85890000  0.86080000  0.30260000  1.0
  H  H31  1  0.64110000  0.13920000  0.80260000  1.0
  H  H32  1  0.85890000  0.63920000  0.30260000  1.0
  H  H33  1  0.64110000  0.36080000  0.80260000  1.0
  H  H34  1  0.14110000  0.13920000  0.69740000  1.0
  H  H35  1  0.35890000  0.86080000  0.19740000  1.0
  C  C36  1  0.05270000  0.43230000  0.42570000  1.0
  C  C37  1  0.44730000  0.56770000  0.92570000  1.0
  C  C38  1  0.94730000  0.93230000  0.57430000  1.0
  C  C39  1  0.55270000  0.06770000  0.07430000  1.0
  C  C40  1  0.94730000  0.56770000  0.57430000  1.0
  C  C41  1  0.55270000  0.43230000  0.07430000  1.0
  C  C42  1  0.05270000  0.06770000  0.42570000  1.0
  C  C43  1  0.44730000  0.93230000  0.92570000  1.0
  C  C44  1  0.10270000  0.47200000  0.58090000  1.0
  C  C45  1  0.39730000  0.52800000  0.08090000  1.0
  C  C46  1  0.89730000  0.97200000  0.41910000  1.0
  C  C47  1  0.60270000  0.02800000  0.91910000  1.0
  C  C48  1  0.89730000  0.52800000  0.41910000  1.0
  C  C49  1  0.60270000  0.47200000  0.91910000  1.0
  C  C50  1  0.10270000  0.02800000  0.58090000  1.0
  C  C51  1  0.39730000  0.97200000  0.08090000  1.0
  C  C52  1  0.20340000  0.44080000  0.67260000  1.0
  C  C53  1  0.29660000  0.55920000  0.17260000  1.0
  C  C54  1  0.79660000  0.94080000  0.32740000  1.0
  C  C55  1  0.70340000  0.05920000  0.82740000  1.0
  C  C56  1  0.79660000  0.55920000  0.32740000  1.0
  C  C57  1  0.70340000  0.44080000  0.82740000  1.0
  C  C58  1  0.20340000  0.05920000  0.67260000  1.0
  C  C59  1  0.29660000  0.94080000  0.17260000  1.0
  Br  Br60  1  0.67110000  0.25000000  0.59572000  1.0
  Br  Br61  1  0.82890000  0.75000000  0.09572000  1.0
  Br  Br62  1  0.32890000  0.75000000  0.40428000  1.0
  Br  Br63  1  0.17110000  0.25000000  0.90428000  1.0
  Br  Br64  1  0.48958000  0.25000000  0.33692000  1.0
  Br  Br65  1  0.01042000  0.75000000  0.83692000  1.0
  Br  Br66  1  0.51042000  0.75000000  0.66308000  1.0
  Br  Br67  1  0.98958000  0.25000000  0.16308000  1.0
  N  N68  1  0.15640000  0.40380000  0.50410000  1.0
  N  N69  1  0.34360000  0.59620000  0.00410000  1.0
  N  N70  1  0.84360000  0.90380000  0.49590000  1.0
  N  N71  1  0.65640000  0.09620000  0.99590000  1.0
  N  N72  1  0.84360000  0.59620000  0.49590000  1.0
  N  N73  1  0.65640000  0.40380000  0.99590000  1.0
  N  N74  1  0.15640000  0.09620000  0.50410000  1.0
  N  N75  1  0.34360000  0.90380000  0.00410000  1.0
