# generated using pymatgen
data_Ag2H8C11N7O6
_symmetry_space_group_name_H-M   'P 1'
_cell_length_a   6.74780000
_cell_length_b   10.49170000
_cell_length_c   11.49930000
_cell_angle_alpha   64.73700000
_cell_angle_beta   87.55500000
_cell_angle_gamma   73.99900000
_symmetry_Int_Tables_number   1
_chemical_formula_structural   Ag2H8C11N7O6
_chemical_formula_sum   'Ag4 H16 C22 N14 O12'
_cell_volume   705.07927714
_cell_formula_units_Z   2
loop_
 _symmetry_equiv_pos_site_id
 _symmetry_equiv_pos_as_xyz
  1  'x, y, z'
loop_
 _atom_site_type_symbol
 _atom_site_label
 _atom_site_symmetry_multiplicity
 _atom_site_fract_x
 _atom_site_fract_y
 _atom_site_fract_z
 _atom_site_occupancy
  Ag  Ag0  1  0.86507000  0.20798000  0.55328000  1.0
  Ag  Ag1  1  0.13493000  0.79202000  0.44672000  1.0
  Ag  Ag2  1  0.74231000  0.03055000  0.43671000  1.0
  Ag  Ag3  1  0.25769000  0.96945000  0.56329000  1.0
  H  H4  1  0.74260000  0.97670000  0.01070000  1.0
  H  H5  1  0.25740000  0.02330000  0.98930000  1.0
  H  H6  1  0.73520000  0.72420000  0.85370000  1.0
  H  H7  1  0.26480000  0.27580000  0.14630000  1.0
  H  H8  1  0.76320000  0.51510000  0.10540000  1.0
  H  H9  1  0.23680000  0.48490000  0.89460000  1.0
  H  H10  1  0.75580000  0.25820000  0.95520000  1.0
  H  H11  1  0.24420000  0.74180000  0.04480000  1.0
  H  H12  1  0.11460000  0.39840000  0.34080000  1.0
  H  H13  1  0.88540000  0.60160000  0.65920000  1.0
  H  H14  1  0.35290000  0.52470000  0.31570000  1.0
  H  H15  1  0.64710000  0.47530000  0.68430000  1.0
  H  H16  1  0.42960000  0.36290000  0.70100000  1.0
  H  H17  1  0.57040000  0.63710000  0.29900000  1.0
  H  H18  1  0.18810000  0.24230000  0.71430000  1.0
  H  H19  1  0.81190000  0.75770000  0.28570000  1.0
  C  C20  1  0.17870000  0.39140000  0.41420000  1.0
  C  C21  1  0.82130000  0.60860000  0.58580000  1.0
  C  C22  1  0.32270000  0.46780000  0.39820000  1.0
  C  C23  1  0.67730000  0.53220000  0.60180000  1.0
  C  C24  1  0.42290000  0.45930000  0.50620000  1.0
  C  C25  1  0.57710000  0.54070000  0.49380000  1.0
  C  C26  1  0.36800000  0.37230000  0.62590000  1.0
  C  C27  1  0.63200000  0.62770000  0.37410000  1.0
  C  C28  1  0.22200000  0.29990000  0.63320000  1.0
  C  C29  1  0.77800000  0.70010000  0.36680000  1.0
  C  C30  1  0.76860000  0.06860000  0.82660000  1.0
  C  C31  1  0.23140000  0.93140000  0.17340000  1.0
  C  C32  1  0.73460000  0.82520000  0.96030000  1.0
  C  C33  1  0.26540000  0.17480000  0.03970000  1.0
  C  C34  1  0.74060000  0.91790000  0.72850000  1.0
  C  C35  1  0.25940000  0.08210000  0.27150000  1.0
  C  C36  1  0.76100000  0.32280000  0.23510000  1.0
  C  C37  1  0.23900000  0.67720000  0.76490000  1.0
  C  C38  1  0.74890000  0.16260000  0.14140000  1.0
  C  C39  1  0.25110000  0.83740000  0.85860000  1.0
  C  C40  1  0.75250000  0.41390000  0.00210000  1.0
  C  C41  1  0.24750000  0.58610000  0.99790000  1.0
  N  N42  1  0.12690000  0.30830000  0.52920000  1.0
  N  N43  1  0.87310000  0.69170000  0.47080000  1.0
  N  N44  1  0.76140000  0.04580000  0.71830000  1.0
  N  N45  1  0.23860000  0.95420000  0.28170000  1.0
  N  N46  1  0.74770000  0.95930000  0.94390000  1.0
  N  N47  1  0.25230000  0.04070000  0.05610000  1.0
  N  N48  1  0.73660000  0.80820000  0.84850000  1.0
  N  N49  1  0.26340000  0.19180000  0.15150000  1.0
  N  N50  1  0.75940000  0.43080000  0.11250000  1.0
  N  N51  1  0.24060000  0.56920000  0.88750000  1.0
  N  N52  1  0.75290000  0.27600000  0.02170000  1.0
  N  N53  1  0.24710000  0.72400000  0.97830000  1.0
  N  N54  1  0.75350000  0.18950000  0.24720000  1.0
  N  N55  1  0.24650000  0.81050000  0.75280000  1.0
  O  O56  1  0.79140000  0.18320000  0.82140000  1.0
  O  O57  1  0.20860000  0.81680000  0.17860000  1.0
  O  O58  1  0.72320000  0.72820000  0.06550000  1.0
  O  O59  1  0.27680000  0.27180000  0.93450000  1.0
  O  O60  1  0.72550000  0.89010000  0.63400000  1.0
  O  O61  1  0.27450000  0.10990000  0.36600000  1.0
  O  O62  1  0.76890000  0.35080000  0.32740000  1.0
  O  O63  1  0.23110000  0.64920000  0.67260000  1.0
  O  O64  1  0.74700000  0.51300000  0.89480000  1.0
  O  O65  1  0.25300000  0.48700000  0.10520000  1.0
  O  O66  1  0.74240000  0.04370000  0.14910000  1.0
  O  O67  1  0.25760000  0.95630000  0.85090000  1.0
