# generated using pymatgen
data_CuH10C7N5ClO5
_symmetry_space_group_name_H-M   'P 1'
_cell_length_a   6.98070000
_cell_length_b   9.14620000
_cell_length_c   11.25120000
_cell_angle_alpha   107.35700000
_cell_angle_beta   105.03700000
_cell_angle_gamma   102.02800000
_symmetry_Int_Tables_number   1
_chemical_formula_structural   CuH10C7N5ClO5
_chemical_formula_sum   'Cu2 H20 C14 N10 Cl2 O10'
_cell_volume   629.53705965
_cell_formula_units_Z   2
loop_
 _symmetry_equiv_pos_site_id
 _symmetry_equiv_pos_as_xyz
  1  'x, y, z'
loop_
 _atom_site_type_symbol
 _atom_site_label
 _atom_site_symmetry_multiplicity
 _atom_site_fract_x
 _atom_site_fract_y
 _atom_site_fract_z
 _atom_site_occupancy
  Cu  Cu0  1  0.29780000  0.33211000  0.76823000  1.0
  Cu  Cu1  1  0.70220000  0.66789000  0.23177000  1.0
  H  H2  1  0.10800000  0.21000000  0.12200000  1.0
  H  H3  1  0.89200000  0.79000000  0.87800000  1.0
  H  H4  1  0.24460000  0.10520000  0.97280000  1.0
  H  H5  1  0.75540000  0.89480000  0.02720000  1.0
  H  H6  1  0.42540000  0.09800000  0.09010000  1.0
  H  H7  1  0.57460000  0.90200000  0.90990000  1.0
  H  H8  1  0.05750000  0.41580000  0.26170000  1.0
  H  H9  1  0.94250000  0.58420000  0.73830000  1.0
  H  H10  1  0.97820000  0.40360000  0.38080000  1.0
  H  H11  1  0.02180000  0.59640000  0.61920000  1.0
  H  H12  1  0.90020000  0.25040000  0.24520000  1.0
  H  H13  1  0.09980000  0.74960000  0.75480000  1.0
  H  H14  1  0.74600000  0.10900000  0.42700000  1.0
  H  H15  1  0.25400000  0.89100000  0.57300000  1.0
  H  H16  1  0.73900000  0.16000000  0.56500000  1.0
  H  H17  1  0.26100000  0.84000000  0.43500000  1.0
  H  H18  1  0.05900000  0.35800000  0.89400000  1.0
  H  H19  1  0.94100000  0.64200000  0.10600000  1.0
  H  H20  1  0.21400000  0.49100000  0.93200000  1.0
  H  H21  1  0.78600000  0.50900000  0.06800000  1.0
  C  C22  1  0.29670000  0.22200000  0.28061000  1.0
  C  C23  1  0.70330000  0.77800000  0.71939000  1.0
  C  C24  1  0.25100000  0.30520000  0.49225000  1.0
  C  C25  1  0.74900000  0.69480000  0.50775000  1.0
  C  C26  1  0.42890000  0.25220000  0.53803000  1.0
  C  C27  1  0.57110000  0.74780000  0.46197000  1.0
  C  C28  1  0.53480000  0.19310000  0.44880000  1.0
  C  C29  1  0.46520000  0.80690000  0.55120000  1.0
  C  C30  1  0.34000000  0.16530000  0.06560000  1.0
  C  C31  1  0.66000000  0.83470000  0.93440000  1.0
  C  C32  1  0.48300000  0.32190000  0.07460000  1.0
  C  C33  1  0.51700000  0.67810000  0.92540000  1.0
  C  C34  1  0.01820000  0.34500000  0.30770000  1.0
  C  C35  1  0.98180000  0.65500000  0.69230000  1.0
  N  N36  1  0.46390000  0.17910000  0.32186000  1.0
  N  N37  1  0.53610000  0.82090000  0.67814000  1.0
  N  N38  1  0.19620000  0.29280000  0.36055000  1.0
  N  N39  1  0.80380000  0.70720000  0.63945000  1.0
  N  N40  1  0.21790000  0.19320000  0.15159000  1.0
  N  N41  1  0.78210000  0.80680000  0.84841000  1.0
  N  N42  1  0.47500000  0.25990000  0.66369000  1.0
  N  N43  1  0.52500000  0.74010000  0.33631000  1.0
  N  N44  1  0.69830000  0.14740000  0.48730000  1.0
  N  N45  1  0.30170000  0.85260000  0.51270000  1.0
  Cl  Cl46  1  0.08612000  0.07568000  0.70490000  1.0
  Cl  Cl47  1  0.91388000  0.92432000  0.29510000  1.0
  O  O48  1  0.56370000  0.31380000  0.98690000  1.0
  O  O49  1  0.43630000  0.68620000  0.01310000  1.0
  O  O50  1  0.50630000  0.44739000  0.16947000  1.0
  O  O51  1  0.49370000  0.55261000  0.83053000  1.0
  O  O52  1  0.15450000  0.35870000  0.56229000  1.0
  O  O53  1  0.84550000  0.64130000  0.43771000  1.0
  O  O54  1  0.62890000  0.22090000  0.71611000  1.0
  O  O55  1  0.37110000  0.77910000  0.28389000  1.0
  O  O56  1  0.13220000  0.41820000  0.87222000  1.0
  O  O57  1  0.86780000  0.58180000  0.12778000  1.0
