# generated using pymatgen
data_TlH13C13(NO2)2
_symmetry_space_group_name_H-M   'P 1'
_cell_length_a   6.11700000
_cell_length_b   7.86600000
_cell_length_c   14.32900000
_cell_angle_alpha   101.13000000
_cell_angle_beta   99.66000000
_cell_angle_gamma   98.39000000
_symmetry_Int_Tables_number   1
_chemical_formula_structural   TlH13C13(NO2)2
_chemical_formula_sum   'Tl2 H26 C26 N4 O8'
_cell_volume   655.47103102
_cell_formula_units_Z   2
loop_
 _symmetry_equiv_pos_site_id
 _symmetry_equiv_pos_as_xyz
  1  'x, y, z'
loop_
 _atom_site_type_symbol
 _atom_site_label
 _atom_site_symmetry_multiplicity
 _atom_site_fract_x
 _atom_site_fract_y
 _atom_site_fract_z
 _atom_site_occupancy
  Tl  Tl0  1  0.95711000  0.68819000  0.91523000  1.0
  Tl  Tl1  1  0.04289000  0.31181000  0.08477000  1.0
  H  H2  1  0.08700000  0.09000000  0.84100000  1.0
  H  H3  1  0.91300000  0.91000000  0.15900000  1.0
  H  H4  1  0.65600000  0.87600000  0.76600000  1.0
  H  H5  1  0.34400000  0.12400000  0.23400000  1.0
  H  H6  1  0.47300000  0.31300000  0.80100000  1.0
  H  H7  1  0.52700000  0.68700000  0.19900000  1.0
  H  H8  1  0.60500000  0.37500000  0.90700000  1.0
  H  H9  1  0.39500000  0.62500000  0.09300000  1.0
  H  H10  1  0.41300000  0.15500000  0.95200000  1.0
  H  H11  1  0.58700000  0.84500000  0.04800000  1.0
  H  H12  1  0.31700000  0.72200000  0.70900000  1.0
  H  H13  1  0.68300000  0.27800000  0.29100000  1.0
  H  H14  1  0.47700000  0.83500000  0.58600000  1.0
  H  H15  1  0.52300000  0.16500000  0.41400000  1.0
  H  H16  1  0.21900000  0.84900000  0.57300000  1.0
  H  H17  1  0.78100000  0.15100000  0.42700000  1.0
  H  H18  1  0.11800000  0.13600000  0.57000000  1.0
  H  H19  1  0.88200000  0.86400000  0.43000000  1.0
  H  H20  1  0.22800000  0.43000000  0.57000000  1.0
  H  H21  1  0.77200000  0.57000000  0.43000000  1.0
  H  H22  1  0.61400000  0.55600000  0.62400000  1.0
  H  H23  1  0.38600000  0.44400000  0.37600000  1.0
  H  H24  1  0.89500000  0.38700000  0.66700000  1.0
  H  H25  1  0.10500000  0.61300000  0.33300000  1.0
  H  H26  1  0.76400000  0.09200000  0.65300000  1.0
  H  H27  1  0.23600000  0.90800000  0.34700000  1.0
  C  C28  1  0.31250000  0.45180000  0.89110000  1.0
  C  C29  1  0.68750000  0.54820000  0.10890000  1.0
  C  C30  1  0.46850000  0.32290000  0.86590000  1.0
  C  C31  1  0.53150000  0.67710000  0.13410000  1.0
  C  C32  1  0.41020000  0.14070000  0.88570000  1.0
  C  C33  1  0.58980000  0.85930000  0.11430000  1.0
  C  C34  1  0.14870000  0.91700000  0.75210000  1.0
  C  C35  1  0.85130000  0.08300000  0.24790000  1.0
  C  C36  1  0.34690000  0.85060000  0.71520000  1.0
  C  C37  1  0.65310000  0.14940000  0.28480000  1.0
  C  C38  1  0.59510000  0.04050000  0.86500000  1.0
  C  C39  1  0.40490000  0.95950000  0.13500000  1.0
  C  C40  1  0.36340000  0.89000000  0.61430000  1.0
  C  C41  1  0.63660000  0.11000000  0.38570000  1.0
  C  C42  1  0.43500000  0.08140000  0.61560000  1.0
  C  C43  1  0.56500000  0.91860000  0.38440000  1.0
  C  C44  1  0.27920000  0.18590000  0.59050000  1.0
  C  C45  1  0.72080000  0.81410000  0.40950000  1.0
  C  C46  1  0.34780000  0.36310000  0.59280000  1.0
  C  C47  1  0.65220000  0.63690000  0.40720000  1.0
  C  C48  1  0.57500000  0.44020000  0.62090000  1.0
  C  C49  1  0.42500000  0.55980000  0.37910000  1.0
  C  C50  1  0.72960000  0.33830000  0.64640000  1.0
  C  C51  1  0.27040000  0.66170000  0.35360000  1.0
  C  C52  1  0.66340000  0.16160000  0.64300000  1.0
  C  C53  1  0.33660000  0.83840000  0.35700000  1.0
  N  N54  1  0.19020000  0.04510000  0.83050000  1.0
  N  N55  1  0.80980000  0.95490000  0.16950000  1.0
  N  N56  1  0.55830000  0.91660000  0.78440000  1.0
  N  N57  1  0.44170000  0.08340000  0.21560000  1.0
  O  O58  1  0.14220000  0.39880000  0.92400000  1.0
  O  O59  1  0.85780000  0.60120000  0.07600000  1.0
  O  O60  1  0.36490000  0.60290000  0.87940000  1.0
  O  O61  1  0.63510000  0.39710000  0.12060000  1.0
  O  O62  1  0.78270000  0.08290000  0.92140000  1.0
  O  O63  1  0.21730000  0.91710000  0.07860000  1.0
  O  O64  1  0.95550000  0.84370000  0.70820000  1.0
  O  O65  1  0.04450000  0.15630000  0.29180000  1.0
