# generated using pymatgen
data_CuH9C9N3ClO
_symmetry_space_group_name_H-M   'P 1'
_cell_length_a   8.62000000
_cell_length_b   11.44300000
_cell_length_c   11.58300000
_cell_angle_alpha   90.00000000
_cell_angle_beta   108.77000000
_cell_angle_gamma   90.00000000
_symmetry_Int_Tables_number   1
_chemical_formula_structural   CuH9C9N3ClO
_chemical_formula_sum   'Cu4 H36 C36 N12 Cl4 O4'
_cell_volume   1081.76933278
_cell_formula_units_Z   4
loop_
 _symmetry_equiv_pos_site_id
 _symmetry_equiv_pos_as_xyz
  1  'x, y, z'
loop_
 _atom_site_type_symbol
 _atom_site_label
 _atom_site_symmetry_multiplicity
 _atom_site_fract_x
 _atom_site_fract_y
 _atom_site_fract_z
 _atom_site_occupancy
  Cu  Cu0  1  0.04450000  0.89379000  0.10230000  1.0
  Cu  Cu1  1  0.95550000  0.39379000  0.39770000  1.0
  Cu  Cu2  1  0.95550000  0.10621000  0.89770000  1.0
  Cu  Cu3  1  0.04450000  0.60621000  0.60230000  1.0
  H  H4  1  0.16000000  0.34600000  0.29100000  1.0
  H  H5  1  0.84000000  0.84600000  0.20900000  1.0
  H  H6  1  0.84000000  0.65400000  0.70900000  1.0
  H  H7  1  0.16000000  0.15400000  0.79100000  1.0
  H  H8  1  0.04600000  0.25600000  0.26200000  1.0
  H  H9  1  0.95400000  0.75600000  0.23800000  1.0
  H  H10  1  0.95400000  0.74400000  0.73800000  1.0
  H  H11  1  0.04600000  0.24400000  0.76200000  1.0
  H  H12  1  0.22700000  0.32400000  0.50400000  1.0
  H  H13  1  0.77300000  0.82400000  0.99600000  1.0
  H  H14  1  0.77300000  0.67600000  0.49600000  1.0
  H  H15  1  0.22700000  0.17600000  0.00400000  1.0
  H  H16  1  0.03000000  0.18700000  0.55900000  1.0
  H  H17  1  0.97000000  0.68700000  0.94100000  1.0
  H  H18  1  0.97000000  0.81300000  0.44100000  1.0
  H  H19  1  0.03000000  0.31300000  0.05900000  1.0
  H  H20  1  0.99600000  0.12700000  0.42700000  1.0
  H  H21  1  0.00400000  0.62700000  0.07300000  1.0
  H  H22  1  0.00400000  0.87300000  0.57300000  1.0
  H  H23  1  0.99600000  0.37300000  0.92700000  1.0
  H  H24  1  0.42700000  0.99300000  0.12000000  1.0
  H  H25  1  0.57300000  0.49300000  0.38000000  1.0
  H  H26  1  0.57300000  0.00700000  0.88000000  1.0
  H  H27  1  0.42700000  0.50700000  0.62000000  1.0
  H  H28  1  0.64100000  0.12200000  0.18600000  1.0
  H  H29  1  0.35900000  0.62200000  0.31400000  1.0
  H  H30  1  0.35900000  0.87800000  0.81400000  1.0
  H  H31  1  0.64100000  0.37800000  0.68600000  1.0
  H  H32  1  0.71000000  0.21100000  0.37700000  1.0
  H  H33  1  0.29000000  0.71100000  0.12300000  1.0
  H  H34  1  0.29000000  0.78900000  0.62300000  1.0
  H  H35  1  0.71000000  0.28900000  0.87700000  1.0
  H  H36  1  0.52500000  0.21500000  0.48800000  1.0
  H  H37  1  0.47500000  0.71500000  0.01200000  1.0
  H  H38  1  0.47500000  0.78500000  0.51200000  1.0
  H  H39  1  0.52500000  0.28500000  0.98800000  1.0
  C  C40  1  0.10900000  0.30320000  0.32990000  1.0
  C  C41  1  0.89100000  0.80320000  0.17010000  1.0
  C  C42  1  0.89100000  0.69680000  0.67010000  1.0
  C  C43  1  0.10900000  0.19680000  0.82990000  1.0
  C  C44  1  0.14670000  0.27910000  0.44820000  1.0
  C  C45  1  0.85330000  0.77910000  0.05180000  1.0
  C  C46  1  0.85330000  0.72090000  0.55180000  1.0
  C  C47  1  0.14670000  0.22090000  0.94820000  1.0
  C  C48  1  0.09310000  0.17030000  0.49320000  1.0
  C  C49  1  0.90690000  0.67030000  0.00680000  1.0
  C  C50  1  0.90690000  0.82970000  0.50680000  1.0
  C  C51  1  0.09310000  0.32970000  0.99320000  1.0
  C  C52  1  0.44980000  0.03510000  0.19730000  1.0
  C  C53  1  0.55020000  0.53510000  0.30270000  1.0
  C  C54  1  0.55020000  0.96490000  0.80270000  1.0
  C  C55  1  0.44980000  0.46490000  0.69730000  1.0
  C  C56  1  0.57960000  0.10800000  0.24010000  1.0
  C  C57  1  0.42040000  0.60800000  0.25990000  1.0
  C  C58  1  0.42040000  0.89200000  0.75990000  1.0
  C  C59  1  0.57960000  0.39200000  0.74010000  1.0
  C  C60  1  0.60820000  0.17100000  0.34860000  1.0
  C  C61  1  0.39180000  0.67100000  0.15140000  1.0
  C  C62  1  0.39180000  0.82900000  0.65140000  1.0
  C  C63  1  0.60820000  0.32900000  0.84860000  1.0
  C  C64  1  0.51300000  0.15950000  0.42060000  1.0
  C  C65  1  0.48700000  0.65950000  0.07940000  1.0
  C  C66  1  0.48700000  0.84050000  0.57940000  1.0
  C  C67  1  0.51300000  0.34050000  0.92060000  1.0
  C  C68  1  0.38190000  0.08450000  0.37730000  1.0
  C  C69  1  0.61810000  0.58450000  0.12270000  1.0
  C  C70  1  0.61810000  0.91550000  0.62270000  1.0
  C  C71  1  0.38190000  0.41550000  0.87730000  1.0
  C  C72  1  0.34700000  0.02530000  0.26820000  1.0
  C  C73  1  0.65300000  0.52530000  0.23180000  1.0
  C  C74  1  0.65300000  0.97470000  0.73180000  1.0
  C  C75  1  0.34700000  0.47470000  0.76820000  1.0
  N  N76  1  0.25700000  0.05080000  0.41780000  1.0
  N  N77  1  0.74300000  0.55080000  0.08220000  1.0
  N  N78  1  0.74300000  0.94920000  0.58220000  1.0
  N  N79  1  0.25700000  0.44920000  0.91780000  1.0
  N  N80  1  0.15360000  0.97820000  0.34360000  1.0
  N  N81  1  0.84640000  0.47820000  0.15640000  1.0
  N  N82  1  0.84640000  0.02180000  0.65640000  1.0
  N  N83  1  0.15360000  0.52180000  0.84360000  1.0
  N  N84  1  0.20520000  0.96080000  0.25140000  1.0
  N  N85  1  0.79480000  0.46080000  0.24860000  1.0
  N  N86  1  0.79480000  0.03920000  0.74860000  1.0
  N  N87  1  0.20520000  0.53920000  0.75140000  1.0
  Cl  Cl88  1  0.13470000  0.90230000  0.94200000  1.0
  Cl  Cl89  1  0.86530000  0.40230000  0.55800000  1.0
  Cl  Cl90  1  0.86530000  0.09770000  0.05800000  1.0
  Cl  Cl91  1  0.13470000  0.59770000  0.44200000  1.0
  O  O92  1  0.23170000  0.08420000  0.52280000  1.0
  O  O93  1  0.76830000  0.58420000  0.97720000  1.0
  O  O94  1  0.76830000  0.91580000  0.47720000  1.0
  O  O95  1  0.23170000  0.41580000  0.02280000  1.0
