# generated using pymatgen
data_Cd3H26C44Br4(N4O9)2
_symmetry_space_group_name_H-M   'P 1'
_cell_length_a   8.70830000
_cell_length_b   10.16600000
_cell_length_c   14.81290000
_cell_angle_alpha   74.99500000
_cell_angle_beta   89.91500000
_cell_angle_gamma   72.97000000
_symmetry_Int_Tables_number   1
_chemical_formula_structural   Cd3H26C44Br4(N4O9)2
_chemical_formula_sum   'Cd3 H26 C44 Br4 N8 O18'
_cell_volume   1207.18080121
_cell_formula_units_Z   1
loop_
 _symmetry_equiv_pos_site_id
 _symmetry_equiv_pos_as_xyz
  1  'x, y, z'
loop_
 _atom_site_type_symbol
 _atom_site_label
 _atom_site_symmetry_multiplicity
 _atom_site_fract_x
 _atom_site_fract_y
 _atom_site_fract_z
 _atom_site_occupancy
  Cd  Cd0  1  0.50000000  0.00000000  0.50000000  1.0
  Cd  Cd1  1  0.13629000  0.55316000  0.40057000  1.0
  Cd  Cd2  1  0.86371000  0.44684000  0.59943000  1.0
  H  H3  1  0.36100000  0.57890000  0.06430000  1.0
  H  H4  1  0.63900000  0.42110000  0.93570000  1.0
  H  H5  1  0.95930000  0.11490000  0.36470000  1.0
  H  H6  1  0.04070000  0.88510000  0.63530000  1.0
  H  H7  1  0.52150000  0.16560000  0.24240000  1.0
  H  H8  1  0.47850000  0.83440000  0.75760000  1.0
  H  H9  1  0.90540000  0.62730000  0.38670000  1.0
  H  H10  1  0.09460000  0.37270000  0.61330000  1.0
  H  H11  1  0.86160000  0.78820000  0.38470000  1.0
  H  H12  1  0.13840000  0.21180000  0.61530000  1.0
  H  H13  1  0.47770000  0.47980000  0.60680000  1.0
  H  H14  1  0.52230000  0.52020000  0.39320000  1.0
  H  H15  1  0.32150000  0.52710000  0.72860000  1.0
  H  H16  1  0.67850000  0.47290000  0.27140000  1.0
  H  H17  1  0.39850000  0.10690000  0.83870000  1.0
  H  H18  1  0.60150000  0.89310000  0.16130000  1.0
  H  H19  1  0.55680000  0.05920000  0.71880000  1.0
  H  H20  1  0.44320000  0.94080000  0.28120000  1.0
  H  H21  1  0.33370000  0.82500000  0.04880000  1.0
  H  H22  1  0.66630000  0.17500000  0.95120000  1.0
  H  H23  1  0.24410000  0.07160000  0.02230000  1.0
  H  H24  1  0.75590000  0.92840000  0.97770000  1.0
  H  H25  1  0.88590000  0.03790000  0.18700000  1.0
  H  H26  1  0.11410000  0.96210000  0.81300000  1.0
  H  H27  1  0.98060000  0.79180000  0.21830000  1.0
  H  H28  1  0.01940000  0.20820000  0.78170000  1.0
  C  C29  1  0.81230000  0.04130000  0.41440000  1.0
  C  C30  1  0.18770000  0.95870000  0.58560000  1.0
  C  C31  1  0.76440000  0.14390000  0.47130000  1.0
  C  C32  1  0.23560000  0.85610000  0.52870000  1.0
  C  C33  1  0.82190000  0.25410000  0.47780000  1.0
  C  C34  1  0.17810000  0.74590000  0.52220000  1.0
  C  C35  1  0.93880000  0.31620000  0.42330000  1.0
  C  C36  1  0.06120000  0.68380000  0.57670000  1.0
  C  C37  1  0.64280000  0.23490000  0.57710000  1.0
  C  C38  1  0.35720000  0.76510000  0.42290000  1.0
  C  C39  1  0.53650000  0.26410000  0.65140000  1.0
  C  C40  1  0.46350000  0.73590000  0.34860000  1.0
  C  C41  1  0.46330000  0.40480000  0.65390000  1.0
  C  C42  1  0.53670000  0.59520000  0.34610000  1.0
  C  C43  1  0.36930000  0.43350000  0.72630000  1.0
  C  C44  1  0.63070000  0.56650000  0.27370000  1.0
  C  C45  1  0.34800000  0.31980000  0.79500000  1.0
  C  C46  1  0.65200000  0.68020000  0.20500000  1.0
  C  C47  1  0.41590000  0.18140000  0.79240000  1.0
  C  C48  1  0.58410000  0.81860000  0.20760000  1.0
  C  C49  1  0.51030000  0.15320000  0.72070000  1.0
  C  C50  1  0.48970000  0.84680000  0.27930000  1.0
  C  C51  1  0.35580000  0.29380000  0.34930000  1.0
  C  C52  1  0.64420000  0.70620000  0.65070000  1.0
  C  C53  1  0.32520000  0.40760000  0.25860000  1.0
  C  C54  1  0.67480000  0.59240000  0.74140000  1.0
  C  C55  1  0.39220000  0.40830000  0.17420000  1.0
  C  C56  1  0.60780000  0.59170000  0.82580000  1.0
  C  C57  1  0.50390000  0.29910000  0.13570000  1.0
  C  C58  1  0.49610000  0.70090000  0.86430000  1.0
  C  C59  1  0.24100000  0.62680000  0.17090000  1.0
  C  C60  1  0.75900000  0.37320000  0.82910000  1.0
  C  C61  1  0.17190000  0.78270000  0.14070000  1.0
  C  C62  1  0.82810000  0.21730000  0.85930000  1.0
  C  C63  1  0.24670000  0.86720000  0.07900000  1.0
  C  C64  1  0.75330000  0.13280000  0.92100000  1.0
  C  C65  1  0.19200000  0.01460000  0.06200000  1.0
  C  C66  1  0.80800000  0.98540000  0.93800000  1.0
  C  C67  1  0.05960000  0.07590000  0.10470000  1.0
  C  C68  1  0.94040000  0.92410000  0.89530000  1.0
  C  C69  1  0.97820000  0.99470000  0.16120000  1.0
  C  C70  1  0.02180000  0.00530000  0.83880000  1.0
  C  C71  1  0.03490000  0.84780000  0.17950000  1.0
  C  C72  1  0.96510000  0.15220000  0.82050000  1.0
  Br  Br73  1  0.21910000  0.35936000  0.89382000  1.0
  Br  Br74  1  0.78090000  0.64064000  0.10618000  1.0
  Br  Br75  1  0.98882000  0.27623000  0.08987000  1.0
  Br  Br76  1  0.01118000  0.72377000  0.91013000  1.0
  N  N77  1  0.65050000  0.13310000  0.53350000  1.0
  N  N78  1  0.34950000  0.86690000  0.46650000  1.0
  N  N79  1  0.74480000  0.31160000  0.54530000  1.0
  N  N80  1  0.25520000  0.68840000  0.45470000  1.0
  N  N81  1  0.22980000  0.54400000  0.25534000  1.0
  N  N82  1  0.77020000  0.45600000  0.74466000  1.0
  N  N83  1  0.33760000  0.54740000  0.12060000  1.0
  N  N84  1  0.66240000  0.45260000  0.87940000  1.0
  O  O85  1  0.74320000  0.94810000  0.42183000  1.0
  O  O86  1  0.25680000  0.05190000  0.57817000  1.0
  O  O87  1  0.92500000  0.04980000  0.35970000  1.0
  O  O88  1  0.07500000  0.95020000  0.64030000  1.0
  O  O89  1  0.01010000  0.26130000  0.36227000  1.0
  O  O90  1  0.98990000  0.73870000  0.63773000  1.0
  O  O91  1  0.95640000  0.42600000  0.44168000  1.0
  O  O92  1  0.04360000  0.57400000  0.55832000  1.0
  O  O93  1  0.31380000  0.32900000  0.42187000  1.0
  O  O94  1  0.68620000  0.67100000  0.57813000  1.0
  O  O95  1  0.43170000  0.16670000  0.34753000  1.0
  O  O96  1  0.56830000  0.83330000  0.65247000  1.0
  O  O97  1  0.55260000  0.16700000  0.18990000  1.0
  O  O98  1  0.44740000  0.83300000  0.81010000  1.0
  O  O99  1  0.54760000  0.33100000  0.05820000  1.0
  O  O100  1  0.45240000  0.66900000  0.94180000  1.0
  O  O101  1  0.88280000  0.71720000  0.36233000  1.0
  O  O102  1  0.11720000  0.28280000  0.63767000  1.0
