# generated using pymatgen
data_CuH14C12N4O5
_symmetry_space_group_name_H-M   'P 1'
_cell_length_a   6.35700000
_cell_length_b   6.75200000
_cell_length_c   8.90834139
_cell_angle_alpha   106.89015848
_cell_angle_beta   110.90382871
_cell_angle_gamma   90.00000000
_symmetry_Int_Tables_number   1
_chemical_formula_structural   CuH14C12N4O5
_chemical_formula_sum   'Cu1 H14 C12 N4 O5'
_cell_volume   339.48617013
_cell_formula_units_Z   1
loop_
 _symmetry_equiv_pos_site_id
 _symmetry_equiv_pos_as_xyz
  1  'x, y, z'
loop_
 _atom_site_type_symbol
 _atom_site_label
 _atom_site_symmetry_multiplicity
 _atom_site_fract_x
 _atom_site_fract_y
 _atom_site_fract_z
 _atom_site_occupancy
  Cu  Cu0  1  0.00347000  0.00000000  1.00000000  1.0
  H  H1  1  0.39600000  0.27400000  0.30000000  1.0
  H  H2  1  0.09600000  0.72600000  0.70000000  1.0
  H  H3  1  0.48400000  0.43300000  0.59200000  1.0
  H  H4  1  0.89200000  0.56700000  0.40800000  1.0
  H  H5  1  0.88300000  0.12800000  0.53800000  1.0
  H  H6  1  0.34500000  0.87200000  0.46200000  1.0
  H  H7  1  0.81200000  0.98000000  0.24800000  1.0
  H  H8  1  0.56400000  0.02000000  0.75200000  1.0
  H  H9  1  0.15000000  0.33900000  0.81600000  1.0
  H  H10  1  0.33400000  0.66100000  0.18400000  1.0
  H  H11  1  0.37900000  0.45500000  0.83800000  1.0
  H  H12  1  0.54100000  0.54500000  0.16200000  1.0
  H  H13  1  0.46500000  0.13000000  0.01400000  1.0
  H  H14  1  0.45100000  0.87000000  0.98600000  1.0
  C  C15  1  0.83850000  0.61220000  0.99260000  1.0
  C  C16  1  0.84590000  0.38780000  0.00740000  1.0
  C  C17  1  0.28510000  0.24600000  0.35120000  1.0
  C  C18  1  0.93390000  0.75400000  0.64880000  1.0
  C  C19  1  0.34310000  0.33660000  0.52220000  1.0
  C  C20  1  0.82090000  0.66340000  0.47780000  1.0
  C  C21  1  0.19550000  0.29150000  0.59880000  1.0
  C  C22  1  0.59670000  0.70850000  0.40120000  1.0
  C  C23  1  0.99420000  0.15940000  0.49080000  1.0
  C  C24  1  0.50340000  0.84060000  0.50920000  1.0
  C  C25  1  0.95240000  0.07740000  0.32120000  1.0
  C  C26  1  0.63120000  0.92260000  0.67880000  1.0
  N  N27  1  0.09300000  0.11820000  0.24840000  1.0
  N  N28  1  0.84460000  0.88180000  0.75160000  1.0
  N  N29  1  0.24470000  0.37110000  0.76560000  1.0
  N  N30  1  0.47910000  0.62890000  0.23440000  1.0
  O  O31  1  0.02540000  0.71310000  0.02220000  1.0
  O  O32  1  0.00320000  0.28690000  0.97780000  1.0
  O  O33  1  0.65130000  0.67750000  0.95460000  1.0
  O  O34  1  0.69670000  0.32250000  0.04540000  1.0
  O  O35  1  0.36770000  0.00000000  1.00000000  1.0
