# generated using pymatgen
data_CuH5C5NCl2O
_symmetry_space_group_name_H-M   'P 1'
_cell_length_a   3.84450000
_cell_length_b   9.80300000
_cell_length_c   10.09400000
_cell_angle_alpha   67.00900000
_cell_angle_beta   89.94600000
_cell_angle_gamma   89.28400000
_symmetry_Int_Tables_number   1
_chemical_formula_structural   CuH5C5NCl2O
_chemical_formula_sum   'Cu2 H10 C10 N2 Cl4 O2'
_cell_volume   350.17030564
_cell_formula_units_Z   2
loop_
 _symmetry_equiv_pos_site_id
 _symmetry_equiv_pos_as_xyz
  1  'x, y, z'
loop_
 _atom_site_type_symbol
 _atom_site_label
 _atom_site_symmetry_multiplicity
 _atom_site_fract_x
 _atom_site_fract_y
 _atom_site_fract_z
 _atom_site_occupancy
  Cu  Cu0  1  0.66400000  0.96193000  0.16941000  1.0
  Cu  Cu1  1  0.33600000  0.03807000  0.83059000  1.0
  H  H2  1  0.40480000  0.14090000  0.48820000  1.0
  H  H3  1  0.59520000  0.85910000  0.51180000  1.0
  H  H4  1  0.82920000  0.29000000  0.09580000  1.0
  H  H5  1  0.17080000  0.71000000  0.90420000  1.0
  H  H6  1  0.79270000  0.52660000  0.08810000  1.0
  H  H7  1  0.20730000  0.47340000  0.91190000  1.0
  H  H8  1  0.52320000  0.57300000  0.28020000  1.0
  H  H9  1  0.47680000  0.42700000  0.71980000  1.0
  H  H10  1  0.31260000  0.37110000  0.47920000  1.0
  H  H11  1  0.68740000  0.62890000  0.52080000  1.0
  C  C12  1  0.60900000  0.18270000  0.29840000  1.0
  C  C13  1  0.39100000  0.81730000  0.70160000  1.0
  C  C14  1  0.73000000  0.30680000  0.17450000  1.0
  C  C15  1  0.27000000  0.69320000  0.82550000  1.0
  C  C16  1  0.70500000  0.44660000  0.16900000  1.0
  C  C17  1  0.29500000  0.55340000  0.83100000  1.0
  C  C18  1  0.54600000  0.47480000  0.28430000  1.0
  C  C19  1  0.45400000  0.52520000  0.71570000  1.0
  C  C20  1  0.42600000  0.35480000  0.40280000  1.0
  C  C21  1  0.57400000  0.64520000  0.59720000  1.0
  N  N22  1  0.46900000  0.21500000  0.40940000  1.0
  N  N23  1  0.53100000  0.78500000  0.59060000  1.0
  Cl  Cl24  1  0.68740000  0.86060000  0.99600000  1.0
  Cl  Cl25  1  0.31260000  0.13940000  0.00400000  1.0
  Cl  Cl26  1  0.08380000  0.80360000  0.29830000  1.0
  Cl  Cl27  1  0.91620000  0.19640000  0.70170000  1.0
  O  O28  1  0.62500000  0.04700000  0.31670000  1.0
  O  O29  1  0.37500000  0.95300000  0.68330000  1.0
