# generated using pymatgen
data_CdH20C23Br3(N2O3)2
_symmetry_space_group_name_H-M   'P 1'
_cell_length_a   10.17260000
_cell_length_b   11.84940000
_cell_length_c   13.63260000
_cell_angle_alpha   68.34000000
_cell_angle_beta   70.38800000
_cell_angle_gamma   68.92000000
_symmetry_Int_Tables_number   1
_chemical_formula_structural   CdH20C23Br3(N2O3)2
_chemical_formula_sum   'Cd2 H40 C46 Br6 N8 O12'
_cell_volume   1385.47671947
_cell_formula_units_Z   2
loop_
 _symmetry_equiv_pos_site_id
 _symmetry_equiv_pos_as_xyz
  1  'x, y, z'
loop_
 _atom_site_type_symbol
 _atom_site_label
 _atom_site_symmetry_multiplicity
 _atom_site_fract_x
 _atom_site_fract_y
 _atom_site_fract_z
 _atom_site_occupancy
  Cd  Cd0  1  0.41187000  0.68683000  0.57534000  1.0
  Cd  Cd1  1  0.58813000  0.31317000  0.42466000  1.0
  H  H2  1  0.80290000  0.39260000  0.11850000  1.0
  H  H3  1  0.19710000  0.60740000  0.88150000  1.0
  H  H4  1  0.31600000  0.59370000  0.42580000  1.0
  H  H5  1  0.68400000  0.40630000  0.57420000  1.0
  H  H6  1  0.74660000  0.14080000  0.25640000  1.0
  H  H7  1  0.25340000  0.85920000  0.74360000  1.0
  H  H8  1  0.13370000  0.51560000  0.68740000  1.0
  H  H9  1  0.86630000  0.48440000  0.31260000  1.0
  H  H10  1  0.50650000  0.37530000  0.90170000  1.0
  H  H11  1  0.49350000  0.62470000  0.09830000  1.0
  H  H12  1  0.78830000  0.74870000  0.57410000  1.0
  H  H13  1  0.21170000  0.25130000  0.42590000  1.0
  H  H14  1  0.81950000  0.71570000  0.46590000  1.0
  H  H15  1  0.18050000  0.28430000  0.53410000  1.0
  H  H16  1  0.06620000  0.80880000  0.67490000  1.0
  H  H17  1  0.93380000  0.19120000  0.32510000  1.0
  H  H18  1  0.91120000  0.83050000  0.66100000  1.0
  H  H19  1  0.08880000  0.16950000  0.33900000  1.0
  H  H20  1  0.00470000  0.92360000  0.58330000  1.0
  H  H21  1  0.99530000  0.07640000  0.41670000  1.0
  H  H22  1  0.59570000  0.91090000  0.64150000  1.0
  H  H23  1  0.40430000  0.08910000  0.35850000  1.0
  H  H24  1  0.67690000  0.00200000  0.63970000  1.0
  H  H25  1  0.32310000  0.99800000  0.36030000  1.0
  H  H26  1  0.52600000  0.05700000  0.60950000  1.0
  H  H27  1  0.47400000  0.94300000  0.39050000  1.0
  H  H28  1  0.21240000  0.17610000  0.98820000  1.0
  H  H29  1  0.78760000  0.82390000  0.01180000  1.0
  H  H30  1  0.13110000  0.63390000  0.28520000  1.0
  H  H31  1  0.86890000  0.36610000  0.71480000  1.0
  H  H32  1  0.00650000  0.57960000  0.37330000  1.0
  H  H33  1  0.99350000  0.42040000  0.62670000  1.0
  H  H34  1  0.16870000  0.50270000  0.37070000  1.0
  H  H35  1  0.83130000  0.49730000  0.62930000  1.0
  H  H36  1  0.00690000  0.89300000  0.23710000  1.0
  H  H37  1  0.99310000  0.10700000  0.76290000  1.0
  H  H38  1  0.88440000  0.83780000  0.24360000  1.0
  H  H39  1  0.11560000  0.16220000  0.75640000  1.0
  H  H40  1  0.88750000  0.97540000  0.17160000  1.0
  H  H41  1  0.11250000  0.02460000  0.82840000  1.0
  C  C42  1  0.48300000  0.62630000  0.95290000  1.0
  C  C43  1  0.51700000  0.37370000  0.04710000  1.0
  C  C44  1  0.68940000  0.99920000  0.48910000  1.0
  C  C45  1  0.31060000  0.00080000  0.51090000  1.0
  C  C46  1  0.46610000  0.60900000  0.77610000  1.0
  C  C47  1  0.53390000  0.39100000  0.22390000  1.0
  C  C48  1  0.28490000  0.35990000  0.74320000  1.0
  C  C49  1  0.71510000  0.64010000  0.25680000  1.0
  C  C50  1  0.48560000  0.55390000  0.89200000  1.0
  C  C51  1  0.51440000  0.44610000  0.10800000  1.0
  C  C52  1  0.78340000  0.90380000  0.44230000  1.0
  C  C53  1  0.21660000  0.09620000  0.55770000  1.0
  C  C54  1  0.15050000  0.44740000  0.74790000  1.0
  C  C55  1  0.84950000  0.55260000  0.25210000  1.0
  C  C56  1  0.00010000  0.72530000  0.49250000  1.0
  C  C57  1  0.99990000  0.27470000  0.50750000  1.0
  C  C58  1  0.03950000  0.43470000  0.84230000  1.0
  C  C59  1  0.96050000  0.56530000  0.15770000  1.0
  C  C60  1  0.40010000  0.37800000  0.63920000  1.0
  C  C61  1  0.59990000  0.62200000  0.36080000  1.0
  C  C62  1  0.50350000  0.42640000  0.94070000  1.0
  C  C63  1  0.49650000  0.57360000  0.05930000  1.0
  C  C64  1  0.07160000  0.75780000  0.54700000  1.0
  C  C65  1  0.92840000  0.24220000  0.45300000  1.0
  C  C66  1  0.81440000  0.96190000  0.33230000  1.0
  C  C67  1  0.18560000  0.03810000  0.66770000  1.0
  C  C68  1  0.10790000  0.64940000  0.43380000  1.0
  C  C69  1  0.89210000  0.35060000  0.56620000  1.0
  C  C70  1  0.06200000  0.33240000  0.93290000  1.0
  C  C71  1  0.93800000  0.66760000  0.06710000  1.0
  C  C72  1  0.84000000  0.76600000  0.49840000  1.0
  C  C73  1  0.16000000  0.23400000  0.50160000  1.0
  C  C74  1  0.00780000  0.83730000  0.62330000  1.0
  C  C75  1  0.99220000  0.16270000  0.37670000  1.0
  C  C76  1  0.61540000  0.99160000  0.60530000  1.0
  C  C77  1  0.38460000  0.00840000  0.39470000  1.0
  C  C78  1  0.19590000  0.24500000  0.92820000  1.0
  C  C79  1  0.80410000  0.75500000  0.07180000  1.0
  C  C80  1  0.30650000  0.25890000  0.83450000  1.0
  C  C81  1  0.69350000  0.74110000  0.16550000  1.0
  C  C82  1  0.94980000  0.30800000  0.03850000  1.0
  C  C83  1  0.05020000  0.69200000  0.96150000  1.0
  C  C84  1  0.10310000  0.58570000  0.35900000  1.0
  C  C85  1  0.89690000  0.41430000  0.64100000  1.0
  C  C86  1  0.90660000  0.91260000  0.23770000  1.0
  C  C87  1  0.09340000  0.08740000  0.76230000  1.0
  Br  Br88  1  0.86231000  0.56068000  0.83532000  1.0
  Br  Br89  1  0.13769000  0.43932000  0.16468000  1.0
  Br  Br90  1  0.46321000  0.80179000  0.89077000  1.0
  Br  Br91  1  0.53679000  0.19821000  0.10923000  1.0
  Br  Br92  1  0.49052000  0.13981000  0.83501000  1.0
  Br  Br93  1  0.50948000  0.86019000  0.16499000  1.0
  N  N94  1  0.66580000  0.11120000  0.41380000  1.0
  N  N95  1  0.33420000  0.88880000  0.58620000  1.0
  N  N96  1  0.21380000  0.70320000  0.52260000  1.0
  N  N97  1  0.78620000  0.29680000  0.47740000  1.0
  N  N98  1  0.23320000  0.63760000  0.45360000  1.0
  N  N99  1  0.76680000  0.36240000  0.54640000  1.0
  N  N100  1  0.74320000  0.08510000  0.31860000  1.0
  N  N101  1  0.25680000  0.91490000  0.68140000  1.0
  O  O102  1  0.33780000  0.63870000  0.76630000  1.0
  O  O103  1  0.66220000  0.36130000  0.23370000  1.0
  O  O104  1  0.41880000  0.31330000  0.57910000  1.0
  O  O105  1  0.58120000  0.68670000  0.42090000  1.0
  O  O106  1  0.56910000  0.62110000  0.69880000  1.0
  O  O107  1  0.43090000  0.37890000  0.30120000  1.0
  O  O108  1  0.46840000  0.45510000  0.62270000  1.0
  O  O109  1  0.53160000  0.54490000  0.37730000  1.0
  O  O110  1  0.86720000  0.41010000  0.06470000  1.0
  O  O111  1  0.13280000  0.58990000  0.93530000  1.0
  O  O112  1  0.94400000  0.20430000  0.09240000  1.0
  O  O113  1  0.05600000  0.79570000  0.90760000  1.0
