# generated using pymatgen
data_LiH7C4N2O5
_symmetry_space_group_name_H-M   'P 1'
_cell_length_a   6.43060000
_cell_length_b   7.17320000
_cell_length_c   16.71990000
_cell_angle_alpha   90.00000000
_cell_angle_beta   90.00000000
_cell_angle_gamma   108.25300000
_symmetry_Int_Tables_number   1
_chemical_formula_structural   LiH7C4N2O5
_chemical_formula_sum   'Li4 H28 C16 N8 O20'
_cell_volume   732.44775296
_cell_formula_units_Z   4
loop_
 _symmetry_equiv_pos_site_id
 _symmetry_equiv_pos_as_xyz
  1  'x, y, z'
loop_
 _atom_site_type_symbol
 _atom_site_label
 _atom_site_symmetry_multiplicity
 _atom_site_fract_x
 _atom_site_fract_y
 _atom_site_fract_z
 _atom_site_occupancy
  Li  Li0  1  0.26190000  0.48970000  0.58419000  1.0
  Li  Li1  1  0.73810000  0.01030000  0.08419000  1.0
  Li  Li2  1  0.73810000  0.51030000  0.41581000  1.0
  Li  Li3  1  0.26190000  0.98970000  0.91581000  1.0
  H  H4  1  0.18450000  0.96650000  0.75580000  1.0
  H  H5  1  0.81550000  0.53350000  0.25580000  1.0
  H  H6  1  0.81550000  0.03350000  0.24420000  1.0
  H  H7  1  0.18450000  0.46650000  0.74420000  1.0
  H  H8  1  0.76400000  0.75030000  0.59500000  1.0
  H  H9  1  0.23600000  0.74970000  0.09500000  1.0
  H  H10  1  0.23600000  0.24970000  0.40500000  1.0
  H  H11  1  0.76400000  0.25030000  0.90500000  1.0
  H  H12  1  0.58570000  0.66650000  0.82030000  1.0
  H  H13  1  0.41430000  0.83350000  0.32030000  1.0
  H  H14  1  0.41430000  0.33350000  0.17970000  1.0
  H  H15  1  0.58570000  0.16650000  0.67970000  1.0
  H  H16  1  0.45300000  0.27700000  0.51760000  1.0
  H  H17  1  0.54700000  0.22300000  0.01760000  1.0
  H  H18  1  0.54700000  0.72300000  0.48240000  1.0
  H  H19  1  0.45300000  0.77700000  0.98240000  1.0
  H  H20  1  0.24500000  0.16900000  0.55370000  1.0
  H  H21  1  0.75500000  0.33100000  0.05370000  1.0
  H  H22  1  0.75500000  0.83100000  0.44630000  1.0
  H  H23  1  0.24500000  0.66900000  0.94630000  1.0
  H  H24  1  0.22700000  0.77800000  0.53540000  1.0
  H  H25  1  0.77300000  0.72200000  0.03540000  1.0
  H  H26  1  0.77300000  0.22200000  0.46460000  1.0
  H  H27  1  0.22700000  0.27800000  0.96460000  1.0
  H  H28  1  0.18700000  0.68400000  0.46080000  1.0
  H  H29  1  0.81300000  0.81600000  0.96080000  1.0
  H  H30  1  0.81300000  0.31600000  0.53920000  1.0
  H  H31  1  0.18700000  0.18400000  0.03920000  1.0
  C  C32  1  0.00670000  0.87340000  0.66355000  1.0
  C  C33  1  0.99330000  0.62660000  0.16355000  1.0
  C  C34  1  0.99330000  0.12660000  0.33645000  1.0
  C  C35  1  0.00670000  0.37340000  0.83645000  1.0
  C  C36  1  0.63180000  0.68900000  0.70051000  1.0
  C  C37  1  0.36820000  0.81100000  0.20051000  1.0
  C  C38  1  0.36820000  0.31100000  0.29949000  1.0
  C  C39  1  0.63180000  0.18900000  0.79949000  1.0
  C  C40  1  0.69010000  0.71910000  0.78105000  1.0
  C  C41  1  0.30990000  0.78090000  0.28105000  1.0
  C  C42  1  0.30990000  0.28090000  0.21895000  1.0
  C  C43  1  0.69010000  0.21910000  0.71895000  1.0
  C  C44  1  0.90170000  0.82630000  0.80346000  1.0
  C  C45  1  0.09830000  0.67370000  0.30346000  1.0
  C  C46  1  0.09830000  0.17370000  0.19654000  1.0
  C  C47  1  0.90170000  0.32630000  0.69654000  1.0
  N  N48  1  0.05310000  0.89989000  0.74236000  1.0
  N  N49  1  0.94690000  0.60011000  0.24236000  1.0
  N  N50  1  0.94690000  0.10011000  0.25764000  1.0
  N  N51  1  0.05310000  0.39989000  0.75764000  1.0
  N  N52  1  0.79720000  0.76878000  0.64484000  1.0
  N  N53  1  0.20280000  0.73122000  0.14484000  1.0
  N  N54  1  0.20280000  0.23122000  0.35516000  1.0
  N  N55  1  0.79720000  0.26878000  0.85516000  1.0
  O  O56  1  0.14878000  0.94035000  0.61120000  1.0
  O  O57  1  0.85122000  0.55965000  0.11120000  1.0
  O  O58  1  0.85122000  0.05965000  0.38880000  1.0
  O  O59  1  0.14878000  0.44035000  0.88880000  1.0
  O  O60  1  0.44443000  0.59700000  0.67396000  1.0
  O  O61  1  0.55557000  0.90300000  0.17396000  1.0
  O  O62  1  0.55557000  0.40300000  0.32604000  1.0
  O  O63  1  0.44443000  0.09700000  0.82604000  1.0
  O  O64  1  0.97278000  0.86432000  0.87416000  1.0
  O  O65  1  0.02722000  0.63568000  0.37416000  1.0
  O  O66  1  0.02722000  0.13568000  0.12584000  1.0
  O  O67  1  0.97278000  0.36432000  0.62584000  1.0
  O  O68  1  0.31510000  0.27561000  0.52458000  1.0
  O  O69  1  0.68490000  0.22439000  0.02458000  1.0
  O  O70  1  0.68490000  0.72439000  0.47542000  1.0
  O  O71  1  0.31510000  0.77561000  0.97542000  1.0
  O  O72  1  0.26402000  0.69629000  0.50752000  1.0
  O  O73  1  0.73598000  0.80371000  0.00752000  1.0
  O  O74  1  0.73598000  0.30371000  0.49248000  1.0
  O  O75  1  0.26402000  0.19629000  0.99248000  1.0
