# generated using pymatgen
data_Li2H12C8N2O13
_symmetry_space_group_name_H-M   'P 1'
_cell_length_a   6.88060000
_cell_length_b   8.80820000
_cell_length_c   11.76700000
_cell_angle_alpha   90.00000000
_cell_angle_beta   90.00000000
_cell_angle_gamma   103.59000000
_symmetry_Int_Tables_number   1
_chemical_formula_structural   Li2H12C8N2O13
_chemical_formula_sum   'Li4 H24 C16 N4 O26'
_cell_volume   693.18060351
_cell_formula_units_Z   2
loop_
 _symmetry_equiv_pos_site_id
 _symmetry_equiv_pos_as_xyz
  1  'x, y, z'
loop_
 _atom_site_type_symbol
 _atom_site_label
 _atom_site_symmetry_multiplicity
 _atom_site_fract_x
 _atom_site_fract_y
 _atom_site_fract_z
 _atom_site_occupancy
  Li  Li0  1  0.88110000  0.06080000  0.25000000  1.0
  Li  Li1  1  0.11890000  0.93920000  0.75000000  1.0
  Li  Li2  1  0.34320000  0.05200000  0.25000000  1.0
  Li  Li3  1  0.65680000  0.94800000  0.75000000  1.0
  H  H4  1  0.92900000  0.14700000  0.04640000  1.0
  H  H5  1  0.07100000  0.85300000  0.54640000  1.0
  H  H6  1  0.07100000  0.85300000  0.95360000  1.0
  H  H7  1  0.92900000  0.14700000  0.45360000  1.0
  H  H8  1  0.77000000  0.00800000  0.03800000  1.0
  H  H9  1  0.23000000  0.99200000  0.53800000  1.0
  H  H10  1  0.23000000  0.99200000  0.96200000  1.0
  H  H11  1  0.77000000  0.00800000  0.46200000  1.0
  H  H12  1  0.02400000  0.85200000  0.19280000  1.0
  H  H13  1  0.97600000  0.14800000  0.69280000  1.0
  H  H14  1  0.97600000  0.14800000  0.80720000  1.0
  H  H15  1  0.02400000  0.85200000  0.30720000  1.0
  H  H16  1  0.51600000  0.84600000  0.19340000  1.0
  H  H17  1  0.48400000  0.15400000  0.69340000  1.0
  H  H18  1  0.48400000  0.15400000  0.80660000  1.0
  H  H19  1  0.51600000  0.84600000  0.30660000  1.0
  H  H20  1  0.12500000  0.33900000  0.19060000  1.0
  H  H21  1  0.87500000  0.66100000  0.69060000  1.0
  H  H22  1  0.87500000  0.66100000  0.80940000  1.0
  H  H23  1  0.12500000  0.33900000  0.30940000  1.0
  H  H24  1  0.66400000  0.41200000  0.94500000  1.0
  H  H25  1  0.33600000  0.58800000  0.44500000  1.0
  H  H26  1  0.33600000  0.58800000  0.05500000  1.0
  H  H27  1  0.66400000  0.41200000  0.55500000  1.0
  C  C28  1  0.50647000  0.23971000  0.05281000  1.0
  C  C29  1  0.49353000  0.76029000  0.55281000  1.0
  C  C30  1  0.49353000  0.76029000  0.94719000  1.0
  C  C31  1  0.50647000  0.23971000  0.44719000  1.0
  C  C32  1  0.73876000  0.49057000  0.15142000  1.0
  C  C33  1  0.26124000  0.50943000  0.65142000  1.0
  C  C34  1  0.26124000  0.50943000  0.84858000  1.0
  C  C35  1  0.73876000  0.49057000  0.34858000  1.0
  C  C36  1  0.60549000  0.34235000  0.15127000  1.0
  C  C37  1  0.39451000  0.65765000  0.65127000  1.0
  C  C38  1  0.39451000  0.65765000  0.84873000  1.0
  C  C39  1  0.60549000  0.34235000  0.34873000  1.0
  C  C40  1  0.82699000  0.58970000  0.04920000  1.0
  C  C41  1  0.17301000  0.41030000  0.54920000  1.0
  C  C42  1  0.17301000  0.41030000  0.95080000  1.0
  C  C43  1  0.82699000  0.58970000  0.45080000  1.0
  N  N44  1  0.54440000  0.27480000  0.25000000  1.0
  N  N45  1  0.45560000  0.72520000  0.75000000  1.0
  N  N46  1  0.80060000  0.55968000  0.25000000  1.0
  N  N47  1  0.19940000  0.44032000  0.75000000  1.0
  O  O48  1  0.38289000  0.12018000  0.07723000  1.0
  O  O49  1  0.61711000  0.87982000  0.57723000  1.0
  O  O50  1  0.61711000  0.87982000  0.92277000  1.0
  O  O51  1  0.38289000  0.12018000  0.42277000  1.0
  O  O52  1  0.93637000  0.71680000  0.06583000  1.0
  O  O53  1  0.06363000  0.28320000  0.56583000  1.0
  O  O54  1  0.06363000  0.28320000  0.93417000  1.0
  O  O55  1  0.93637000  0.71680000  0.43417000  1.0
  O  O56  1  0.78081000  0.53464000  0.94943000  1.0
  O  O57  1  0.21919000  0.46536000  0.44943000  1.0
  O  O58  1  0.21919000  0.46536000  0.05057000  1.0
  O  O59  1  0.78081000  0.53464000  0.55057000  1.0
  O  O60  1  0.55443000  0.28323000  0.95065000  1.0
  O  O61  1  0.44557000  0.71677000  0.45065000  1.0
  O  O62  1  0.44557000  0.71677000  0.04935000  1.0
  O  O63  1  0.55443000  0.28323000  0.54935000  1.0
  O  O64  1  0.83797000  0.07884000  0.08803000  1.0
  O  O65  1  0.16203000  0.92116000  0.58803000  1.0
  O  O66  1  0.16203000  0.92116000  0.91197000  1.0
  O  O67  1  0.83797000  0.07884000  0.41197000  1.0
  O  O68  1  0.07020000  0.90992000  0.25000000  1.0
  O  O69  1  0.92980000  0.09008000  0.75000000  1.0
  O  O70  1  0.54450000  0.90964000  0.25000000  1.0
  O  O71  1  0.45550000  0.09036000  0.75000000  1.0
  O  O72  1  0.07540000  0.27674000  0.25000000  1.0
  O  O73  1  0.92460000  0.72326000  0.75000000  1.0
